Version 4
SHEET 1 880 680
TEXT -200 -32 Left 2 !;Circuito práctica 2\nVin 1 0   AC 1 ;pulse (0V,5V,0s,1ns,1ns,1ms,2ms)\nR1 1 2 1.2K\nR2 2 3 1.2k\nR3 2 0 15K\nL1 3 0 6.58mH\n;.tran 100us 10ms 1us\n.ac dec 10 1Hz 2000KHz\n;.tran 1us 2ms\n.end
